# generated using pymatgen
data_Ti5S8
_symmetry_space_group_name_H-M   'P 1'
_cell_length_a   6.72296615
_cell_length_b   6.72196465
_cell_length_c   6.86279996
_cell_angle_alpha   105.32334008
_cell_angle_beta   104.39521155
_cell_angle_gamma   118.45925052
_symmetry_Int_Tables_number   1
_chemical_formula_structural   Ti5S8
_chemical_formula_sum   'Ti5 S8'
_cell_volume   235.92243041
_cell_formula_units_Z   1
loop_
 _symmetry_equiv_pos_site_id
 _symmetry_equiv_pos_as_xyz
  1  'x, y, z'
loop_
 _atom_site_type_symbol
 _atom_site_label
 _atom_site_symmetry_multiplicity
 _atom_site_fract_x
 _atom_site_fract_y
 _atom_site_fract_z
 _atom_site_occupancy
  Ti  Ti0  1  0.26414244  0.76418868  0.49996527  1
  Ti  Ti1  1  0.73585756  0.23581132  0.50003473  1
  Ti  Ti2  1  0.25567657  0.75475374  0.01022168  1
  Ti  Ti3  1  0.74432343  0.24524626  0.98977832  1
  Ti  Ti4  1  0.00000000  -0.00000000  0.00000000  1
  S  S5  1  0.54101121  0.79175657  0.33272735  1
  S  S6  1  0.45898879  0.20824343  0.66727265  1
  S  S7  1  0.45759367  0.21099673  0.16946556  1
  S  S8  1  0.54240633  0.78900327  0.83053444  1
  S  S9  1  0.04155215  0.28812981  0.83054843  1
  S  S10  1  0.95844785  0.71187019  0.16945157  1
  S  S11  1  0.03600378  0.29492398  0.33103505  1
  S  S12  1  0.96399622  0.70507602  0.66896495  1
