# generated using pymatgen
data_TiCl3
_symmetry_space_group_name_H-M   'P 1'
_cell_length_a   6.07471631
_cell_length_b   6.06836646
_cell_length_c   12.24861478
_cell_angle_alpha   90.04532877
_cell_angle_beta   89.88552138
_cell_angle_gamma   120.02224237
_symmetry_Int_Tables_number   1
_chemical_formula_structural   TiCl3
_chemical_formula_sum   'Ti4 Cl12'
_cell_volume   390.94633641
_cell_formula_units_Z   4
loop_
 _symmetry_equiv_pos_site_id
 _symmetry_equiv_pos_as_xyz
  1  'x, y, z'
loop_
 _atom_site_type_symbol
 _atom_site_label
 _atom_site_symmetry_multiplicity
 _atom_site_fract_x
 _atom_site_fract_y
 _atom_site_fract_z
 _atom_site_occupancy
  Ti  Ti0  1  0.98468478  0.99312067  0.74990647  1
  Ti  Ti1  1  0.68194378  0.34187211  0.74990565  1
  Ti  Ti2  1  0.99145306  0.00693835  0.24995300  1
  Ti  Ti3  1  0.34002226  0.65809456  0.24990709  1
  Cl  Cl4  1  0.66543556  0.68070783  0.13300056  1
  Cl  Cl5  1  0.01509405  0.33223417  0.13261491  1
  Cl  Cl6  1  0.31968689  0.33702479  0.36654375  1
  Cl  Cl7  1  0.33333381  0.01445479  0.64223587  1
  Cl  Cl8  1  0.31870165  0.98561021  0.14222909  1
  Cl  Cl9  1  0.33328789  0.32022155  0.85962241  1
  Cl  Cl10  1  0.68278869  0.01250524  0.86616453  1
  Cl  Cl11  1  0.98262345  0.66269774  0.86656683  1
  Cl  Cl12  1  0.98474170  0.31941779  0.63294551  1
  Cl  Cl13  1  0.67013742  0.98736923  0.36616320  1
  Cl  Cl14  1  0.68297763  0.66795567  0.63261294  1
  Cl  Cl15  1  0.01308737  0.67977730  0.35962719  1
